
**** 09/23/24 11:31:22 **** PSpice 23.1.0 (30 January 2024) *** ID# 0 ********

 ** Profile: "SCHEMATIC1-lab2_project_analys"  [ E:\electric_circuit_lab2\lab2_project-PSpiceFiles\SCHEMATIC1\lab2_project_analys.sim


 ****     CIRCUIT DESCRIPTION


******************************************************************************




** Creating circuit file "lab2_project_analys.cir" 
** WARNING: THIS AUTOMATICALLY GENERATED FILE MAY BE OVERWRITTEN BY SUBSEQUENT SIMULATIONS

*Libraries: 
* Profile Libraries :
* Local Libraries :
* From [PSPICE NETLIST] section of C:\cds_spb_home\cdssetup\OrCAD_PSpiceTIPSpice_Install\23.1.0\PSpice.ini file:
.lib "nom_pspti.lib" 
.lib "nom.lib" 

*Analysis directives: 
.DC LIN V_V1 0 5 0.1 
.OPTIONS ADVCONV
.OPTIONS FILEMODELSEARCH
.PROBE64 V(alias(*)) I(alias(*)) W(alias(*)) D(alias(*)) NOISE(alias(*)) 
.INC "..\SCHEMATIC1.net" 



**** INCLUDING SCHEMATIC1.net ****
* source LAB2_PROJECT
D_D1         N00099 0 Dbreak 
V_V1         N00092 0 5Vdc
R_R1         N00092 N00099  1k TC=0,0 

**** RESUMING lab2_project_analys.cir ****
.END

INFO(ORPSIM-15423): Unable to find index file nom.ind for library file nom.lib.

INFO(ORPSIM-15422): Making new index file nom.ind for library file nom.lib.

Index has 1955 entries from 6 file(s).


          JOB CONCLUDED

**** 09/23/24 11:31:22 **** PSpice 23.1.0 (30 January 2024) *** ID# 0 ********

 ** Profile: "SCHEMATIC1-lab2_project_analys"  [ E:\electric_circuit_lab2\lab2_project-PSpiceFiles\SCHEMATIC1\lab2_project_analys.sim


 ****     JOB STATISTICS SUMMARY


******************************************************************************



  Total job time (using Solver 1)   =        5.53
